03_OpenDSS_Circuits/Flay_Circuit_Opendss/SourceRegulator.dss
New Transformer.FLAY_RET_16271201_1 Phases=1 Windings=2 XHL=0.1 %LoadLoss=0.001 Buses=[FLAY_RET_16271201.1 FLAY_RET_16271201_reg.1] kVs=[ 7.19955785679463   7.19955785679463 ]
New RegControl.FLAY_RET_16271201_1 Transformer=FLAY_RET_16271201_1 Winding=2 Vreg= 123.945461370235  Band= 1 PTratio= 59.9963154732886  CTPrim= 100  R= 0  X= 0 
New Transformer.FLAY_RET_16271201_2 Phases=1 Windings=2 XHL=0.1 %LoadLoss=0.001 Buses=[FLAY_RET_16271201.2 FLAY_RET_16271201_reg.2] kVs=[ 7.19955785679463   7.19955785679463 ]
New RegControl.FLAY_RET_16271201_2 Transformer=FLAY_RET_16271201_2 Winding=2 Vreg= 123.945461370235  Band= 1 PTratio= 59.9963154732886  CTPrim= 100  R= 0  X= 0 
New Transformer.FLAY_RET_16271201_3 Phases=1 Windings=2 XHL=0.1 %LoadLoss=0.001 Buses=[FLAY_RET_16271201.3 FLAY_RET_16271201_reg.3] kVs=[ 7.19955785679463   7.19955785679463 ]
New RegControl.FLAY_RET_16271201_3 Transformer=FLAY_RET_16271201_3 Winding=2 Vreg= 123.945461370235  Band= 1 PTratio= 59.9963154732886  CTPrim= 100  R= 0  X= 0 
